Localizador/ModeleTeste_VLN_elem.Txt

NODE-GROUND VOLTAGES BY CIRCUIT ELEMENT

Power Delivery Elements

Bus  (node ref)  Phase    Magnitude, kV (pu)    Angle

ELEMENT = "Vsource.SOURCE"
1     (  1)    1           56.062 (   0.971) /_   -1.3
1     (  2)    2           56.062 (   0.971) /_ -121.3
1     (  3)    3           56.062 (   0.971) /_  118.7
------------
1     (  0)    0                0 (       0) /_    0.0
1     (  0)    0                0 (       0) /_    0.0
1     (  0)    0                0 (       0) /_    0.0

ELEMENT = "Line.L3_4"
3     (  4)    1           56.003 (    0.97) /_   -1.3
3     (  5)    2           56.003 (    0.97) /_ -121.3
3     (  6)    3           56.003 (    0.97) /_  118.7
------------
4     (  7)    1           56.003 (    0.97) /_   -1.3
4     (  8)    2           56.003 (    0.97) /_ -121.3
4     (  9)    3           56.003 (    0.97) /_  118.7

ELEMENT = "Line.L1_2"
1     (  1)    1           56.062 (   0.971) /_   -1.3
1     (  2)    2           56.062 (   0.971) /_ -121.3
1     (  3)    3           56.062 (   0.971) /_  118.7
------------
2     ( 10)    1           56.033 (  0.9705) /_   -1.3
2     ( 11)    2           56.033 (  0.9705) /_ -121.3
2     ( 12)    3           56.033 (  0.9705) /_  118.7

ELEMENT = "Line.L2_3"
2     ( 10)    1           56.033 (  0.9705) /_   -1.3
2     ( 11)    2           56.033 (  0.9705) /_ -121.3
2     ( 12)    3           56.033 (  0.9705) /_  118.7
------------
3     (  4)    1           56.003 (    0.97) /_   -1.3
3     (  5)    2           56.003 (    0.97) /_ -121.3
3     (  6)    3           56.003 (    0.97) /_  118.7

ELEMENT = "Line.L4_5"
4     (  7)    1           56.003 (    0.97) /_   -1.3
4     (  8)    2           56.003 (    0.97) /_ -121.3
4     (  9)    3           56.003 (    0.97) /_  118.7
------------
5     ( 13)    1           55.926 (  0.9687) /_   -1.4
5     ( 14)    2           55.926 (  0.9687) /_ -121.4
5     ( 15)    3           55.926 (  0.9687) /_  118.6

ELEMENT = "Line.L3_29"
3     (  4)    1           56.003 (    0.97) /_   -1.3
3     (  5)    2           56.003 (    0.97) /_ -121.3
3     (  6)    3           56.003 (    0.97) /_  118.7
------------
29    ( 16)    1           55.989 (  0.9698) /_   -1.3
29    ( 17)    2           55.989 (  0.9698) /_ -121.3
29    ( 18)    3           55.989 (  0.9698) /_  118.7

ELEMENT = "Line.L4_37"
4     (  7)    1           56.003 (    0.97) /_   -1.3
4     (  8)    2           56.003 (    0.97) /_ -121.3
4     (  9)    3           56.003 (    0.97) /_  118.7
------------
37    ( 19)    1           55.978 (  0.9696) /_   -1.3
37    ( 20)    2           55.978 (  0.9696) /_ -121.3
37    ( 21)    3           55.978 (  0.9696) /_  118.7

ELEMENT = "Line.L5_48"
5     ( 13)    1           55.926 (  0.9687) /_   -1.4
5     ( 14)    2           55.926 (  0.9687) /_ -121.4
5     ( 15)    3           55.926 (  0.9687) /_  118.6
------------
48    ( 22)    1           55.849 (  0.9673) /_   -1.4
48    ( 23)    2           55.849 (  0.9673) /_ -121.4
48    ( 24)    3           55.849 (  0.9673) /_  118.6

ELEMENT = "Line.L29_30"
29    ( 16)    1           55.989 (  0.9698) /_   -1.3
29    ( 17)    2           55.989 (  0.9698) /_ -121.3
29    ( 18)    3           55.989 (  0.9698) /_  118.7
------------
30    ( 25)    1           55.842 (  0.9672) /_   -1.4
30    ( 26)    2           55.842 (  0.9672) /_ -121.4
30    ( 27)    3           55.842 (  0.9672) /_  118.6

ELEMENT = "Line.L37_38"
37    ( 19)    1           55.978 (  0.9696) /_   -1.3
37    ( 20)    2           55.978 (  0.9696) /_ -121.3
37    ( 21)    3           55.978 (  0.9696) /_  118.7
------------
38    ( 28)    1           55.683 (  0.9645) /_   -1.4
38    ( 29)    2           55.683 (  0.9645) /_ -121.4
38    ( 30)    3           55.683 (  0.9645) /_  118.6

ELEMENT = "Line.L48_49"
48    ( 22)    1           55.849 (  0.9673) /_   -1.4
48    ( 23)    2           55.849 (  0.9673) /_ -121.4
48    ( 24)    3           55.849 (  0.9673) /_  118.6
------------
49    ( 31)    1           53.927 (   0.934) /_   -2.0
49    ( 32)    2           53.927 (   0.934) /_ -122.0
49    ( 33)    3           53.927 (   0.934) /_  118.0

ELEMENT = "Line.L49_50"
49    ( 31)    1           53.927 (   0.934) /_   -2.0
49    ( 32)    2           53.927 (   0.934) /_ -122.0
49    ( 33)    3           53.927 (   0.934) /_  118.0
------------
50    ( 34)    1             48.2 (  0.8349) /_   -3.9
50    ( 35)    2             48.2 (  0.8349) /_ -123.9
50    ( 36)    3             48.2 (  0.8349) /_  116.1

ELEMENT = "Line.L50_51"
50    ( 34)    1             48.2 (  0.8349) /_   -3.9
50    ( 35)    2             48.2 (  0.8349) /_ -123.9
50    ( 36)    3             48.2 (  0.8349) /_  116.1
------------
51    ( 37)    1           47.268 (  0.8187) /_   -4.6
51    ( 38)    2           47.268 (  0.8187) /_ -124.6
51    ( 39)    3           47.268 (  0.8187) /_  115.4

ELEMENT = "Line.L6_7"
6     ( 40)    1           55.421 (  0.9599) /_   -1.6
6     ( 41)    2           55.421 (  0.9599) /_ -121.6
6     ( 42)    3           55.421 (  0.9599) /_  118.4
------------
7     ( 43)    1           49.672 (  0.8604) /_   -1.4
7     ( 44)    2           49.672 (  0.8604) /_ -121.4
7     ( 45)    3           49.672 (  0.8604) /_  118.6

ELEMENT = "Line.L7_8"
7     ( 43)    1           49.672 (  0.8604) /_   -1.4
7     ( 44)    2           49.672 (  0.8604) /_ -121.4
7     ( 45)    3           49.672 (  0.8604) /_  118.6
------------
8     ( 46)    1           43.704 (   0.757) /_   -1.1
8     ( 47)    2           43.704 (   0.757) /_ -121.1
8     ( 48)    3           43.704 (   0.757) /_  118.9

ELEMENT = "Line.L8_9"
8     ( 46)    1           43.704 (   0.757) /_   -1.1
8     ( 47)    2           43.704 (   0.757) /_ -121.1
8     ( 48)    3           43.704 (   0.757) /_  118.9
------------
9     ( 49)    1           42.298 (  0.7326) /_   -1.0
9     ( 50)    2           42.298 (  0.7326) /_ -121.0
9     ( 51)    3           42.298 (  0.7326) /_  119.0

ELEMENT = "Line.L9_10"
9     ( 49)    1           42.298 (  0.7326) /_   -1.0
9     ( 50)    2           42.298 (  0.7326) /_ -121.0
9     ( 51)    3           42.298 (  0.7326) /_  119.0
------------
10    ( 52)    1           41.621 (  0.7209) /_   -1.0
10    ( 53)    2           41.621 (  0.7209) /_ -121.0
10    ( 54)    3           41.621 (  0.7209) /_  119.0

ELEMENT = "Line.L9_52"
9     ( 49)    1           42.298 (  0.7326) /_   -1.0
9     ( 50)    2           42.298 (  0.7326) /_ -121.0
9     ( 51)    3           42.298 (  0.7326) /_  119.0
------------
52    ( 55)    1           42.245 (  0.7317) /_   -1.0
52    ( 56)    2           42.245 (  0.7317) /_ -121.0
52    ( 57)    3           42.245 (  0.7317) /_  119.0

ELEMENT = "Line.L10_54"
10    ( 52)    1           41.621 (  0.7209) /_   -1.0
10    ( 53)    2           41.621 (  0.7209) /_ -121.0
10    ( 54)    3           41.621 (  0.7209) /_  119.0
------------
54    ( 58)    1           40.404 (  0.6998) /_   -0.9
54    ( 59)    2           40.404 (  0.6998) /_ -120.9
54    ( 60)    3           40.404 (  0.6998) /_  119.1

ELEMENT = "Line.L54_55"
54    ( 58)    1           40.404 (  0.6998) /_   -0.9
54    ( 59)    2           40.404 (  0.6998) /_ -120.9
54    ( 60)    3           40.404 (  0.6998) /_  119.1
------------
55    ( 61)    1           38.988 (  0.6753) /_   -0.9
55    ( 62)    2           38.988 (  0.6753) /_ -120.9
55    ( 63)    3           38.988 (  0.6753) /_  119.1

ELEMENT = "Line.L55_56"
55    ( 61)    1           38.988 (  0.6753) /_   -0.9
55    ( 62)    2           38.988 (  0.6753) /_ -120.9
55    ( 63)    3           38.988 (  0.6753) /_  119.1
------------
56    ( 64)    1           37.093 (  0.6425) /_   -0.9
56    ( 65)    2           37.093 (  0.6425) /_ -120.9
56    ( 66)    3           37.093 (  0.6425) /_  119.1

ELEMENT = "Line.L56_57"
56    ( 64)    1           37.093 (  0.6425) /_   -0.9
56    ( 65)    2           37.093 (  0.6425) /_ -120.9
56    ( 66)    3           37.093 (  0.6425) /_  119.1
------------
57    ( 67)    1           35.291 (  0.6113) /_   -0.9
57    ( 68)    2           35.291 (  0.6113) /_ -120.9
57    ( 69)    3           35.291 (  0.6113) /_  119.1

ELEMENT = "Line.L61_62"
61    ( 70)    1           17.355 (  0.3006) /_    8.1
61    ( 71)    2           17.355 (  0.3006) /_ -111.9
61    ( 72)    3           17.355 (  0.3006) /_  128.1
------------
62    ( 73)    1           14.225 (  0.2464) /_    9.5
62    ( 74)    2           14.225 (  0.2464) /_ -110.5
62    ( 75)    3           14.225 (  0.2464) /_  129.5

ELEMENT = "Line.L63_64"
63    ( 76)    1           13.373 (  0.2316) /_   11.6
63    ( 77)    2           13.373 (  0.2316) /_ -108.4
63    ( 78)    3           13.373 (  0.2316) /_  131.6
------------
64    ( 79)    1           13.226 (  0.2291) /_   11.7
64    ( 80)    2           13.226 (  0.2291) /_ -108.3
64    ( 81)    3           13.226 (  0.2291) /_  131.7

ELEMENT = "Line.L64_65"
64    ( 79)    1           13.226 (  0.2291) /_   11.7
64    ( 80)    2           13.226 (  0.2291) /_ -108.3
64    ( 81)    3           13.226 (  0.2291) /_  131.7
------------
65    ( 82)    1           12.508 (  0.2166) /_   12.2
65    ( 83)    2           12.508 (  0.2166) /_ -107.8
65    ( 84)    3           12.508 (  0.2166) /_  132.2

ELEMENT = "Line.L65_66"
65    ( 82)    1           12.508 (  0.2166) /_   12.2
65    ( 83)    2           12.508 (  0.2166) /_ -107.8
65    ( 84)    3           12.508 (  0.2166) /_  132.2
------------
66    ( 85)    1           12.294 (  0.2129) /_   12.3
66    ( 86)    2           12.294 (  0.2129) /_ -107.7
66    ( 87)    3           12.294 (  0.2129) /_  132.3

ELEMENT = "Line.L5_6"
5     ( 13)    1           55.926 (  0.9687) /_   -1.4
5     ( 14)    2           55.926 (  0.9687) /_ -121.4
5     ( 15)    3           55.926 (  0.9687) /_  118.6
------------
6     ( 40)    1           55.421 (  0.9599) /_   -1.6
6     ( 41)    2           55.421 (  0.9599) /_ -121.6
6     ( 42)    3           55.421 (  0.9599) /_  118.4

ELEMENT = "Line.L38_39"
38    ( 28)    1           55.683 (  0.9645) /_   -1.4
38    ( 29)    2           55.683 (  0.9645) /_ -121.4
38    ( 30)    3           55.683 (  0.9645) /_  118.6
------------
39    ( 88)    1           55.444 (  0.9603) /_   -1.4
39    ( 89)    2           55.444 (  0.9603) /_ -121.4
39    ( 90)    3           55.444 (  0.9603) /_  118.6

ELEMENT = "Line.L39_40"
39    ( 88)    1           55.444 (  0.9603) /_   -1.4
39    ( 89)    2           55.444 (  0.9603) /_ -121.4
39    ( 90)    3           55.444 (  0.9603) /_  118.6
------------
40    ( 91)    1           55.375 (  0.9591) /_   -1.4
40    ( 92)    2           55.375 (  0.9591) /_ -121.4
40    ( 93)    3           55.375 (  0.9591) /_  118.6

ELEMENT = "Line.L41_42"
41    ( 94)    1           55.372 (  0.9591) /_   -1.4
41    ( 95)    2           55.372 (  0.9591) /_ -121.4
41    ( 96)    3           55.372 (  0.9591) /_  118.6
------------
42    ( 97)    1           54.526 (  0.9444) /_   -1.2
42    ( 98)    2           54.526 (  0.9444) /_ -121.2
42    ( 99)    3           54.526 (  0.9444) /_  118.8

ELEMENT = "Line.L42_43"
42    ( 97)    1           54.526 (  0.9444) /_   -1.2
42    ( 98)    2           54.526 (  0.9444) /_ -121.2
42    ( 99)    3           54.526 (  0.9444) /_  118.8
------------
43    (100)    1           54.175 (  0.9383) /_   -1.1
43    (101)    2           54.175 (  0.9383) /_ -121.1
43    (102)    3           54.175 (  0.9383) /_  118.9

ELEMENT = "Line.L43_44"
43    (100)    1           54.175 (  0.9383) /_   -1.1
43    (101)    2           54.175 (  0.9383) /_ -121.1
43    (102)    3           54.175 (  0.9383) /_  118.9
------------
44    (103)    1           54.128 (  0.9375) /_   -1.0
44    (104)    2           54.128 (  0.9375) /_ -121.0
44    (105)    3           54.128 (  0.9375) /_  119.0

ELEMENT = "Line.L44_45"
44    (103)    1           54.128 (  0.9375) /_   -1.0
44    (104)    2           54.128 (  0.9375) /_ -121.0
44    (105)    3           54.128 (  0.9375) /_  119.0
------------
45    (106)    1           54.119 (  0.9374) /_   -1.0
45    (107)    2           54.119 (  0.9374) /_ -121.0
45    (108)    3           54.119 (  0.9374) /_  119.0

ELEMENT = "Line.L45_46"
45    (106)    1           54.119 (  0.9374) /_   -1.0
45    (107)    2           54.119 (  0.9374) /_ -121.0
45    (108)    3           54.119 (  0.9374) /_  119.0
------------
46    (109)    1           54.011 (  0.9355) /_   -1.0
46    (110)    2           54.011 (  0.9355) /_ -121.0
46    (111)    3           54.011 (  0.9355) /_  119.0

ELEMENT = "Line.L40_41"
40    ( 91)    1           55.375 (  0.9591) /_   -1.4
40    ( 92)    2           55.375 (  0.9591) /_ -121.4
40    ( 93)    3           55.375 (  0.9591) /_  118.6
------------
41    ( 94)    1           55.372 (  0.9591) /_   -1.4
41    ( 95)    2           55.372 (  0.9591) /_ -121.4
41    ( 96)    3           55.372 (  0.9591) /_  118.6

ELEMENT = "Line.L46_47"
46    (109)    1           54.011 (  0.9355) /_   -1.0
46    (110)    2           54.011 (  0.9355) /_ -121.0
46    (111)    3           54.011 (  0.9355) /_  119.0
------------
47    (112)    1            54.01 (  0.9355) /_   -1.0
47    (113)    2            54.01 (  0.9355) /_ -121.0
47    (114)    3            54.01 (  0.9355) /_  119.0

ELEMENT = "Line.L62_63"
62    ( 73)    1           14.225 (  0.2464) /_    9.5
62    ( 74)    2           14.225 (  0.2464) /_ -110.5
62    ( 75)    3           14.225 (  0.2464) /_  129.5
------------
63    ( 76)    1           13.373 (  0.2316) /_   11.6
63    ( 77)    2           13.373 (  0.2316) /_ -108.4
63    ( 78)    3           13.373 (  0.2316) /_  131.6

ELEMENT = "Line.L10_11"
10    ( 52)    1           41.621 (  0.7209) /_   -1.0
10    ( 53)    2           41.621 (  0.7209) /_ -121.0
10    ( 54)    3           41.621 (  0.7209) /_  119.0
------------
11    (115)    1           36.861 (  0.6385) /_    0.7
11    (116)    2           36.861 (  0.6385) /_ -119.3
11    (117)    3           36.861 (  0.6385) /_  120.7

ELEMENT = "Line.L11_12"
11    (115)    1           36.861 (  0.6385) /_    0.7
11    (116)    2           36.861 (  0.6385) /_ -119.3
11    (117)    3           36.861 (  0.6385) /_  120.7
------------
12    (118)    1           35.831 (  0.6206) /_    1.1
12    (119)    2           35.831 (  0.6206) /_ -118.9
12    (120)    3           35.831 (  0.6206) /_  121.1

ELEMENT = "Line.L12_13"
12    (118)    1           35.831 (  0.6206) /_    1.1
12    (119)    2           35.831 (  0.6206) /_ -118.9
12    (120)    3           35.831 (  0.6206) /_  121.1
------------
13    (121)    1           33.164 (  0.5744) /_    2.2
13    (122)    2           33.164 (  0.5744) /_ -117.8
13    (123)    3           33.164 (  0.5744) /_  122.2

ELEMENT = "Line.L13_14"
13    (121)    1           33.164 (  0.5744) /_    2.2
13    (122)    2           33.164 (  0.5744) /_ -117.8
13    (123)    3           33.164 (  0.5744) /_  122.2
------------
14    (124)    1           30.887 (   0.535) /_    3.2
14    (125)    2           30.887 (   0.535) /_ -116.8
14    (126)    3           30.887 (   0.535) /_  123.2

ELEMENT = "Line.L14_15"
14    (124)    1           30.887 (   0.535) /_    3.2
14    (125)    2           30.887 (   0.535) /_ -116.8
14    (126)    3           30.887 (   0.535) /_  123.2
------------
15    (127)    1           28.657 (  0.4963) /_    4.3
15    (128)    2           28.657 (  0.4963) /_ -115.7
15    (129)    3           28.657 (  0.4963) /_  124.3

ELEMENT = "Line.L15_16"
15    (127)    1           28.657 (  0.4963) /_    4.3
15    (128)    2           28.657 (  0.4963) /_ -115.7
15    (129)    3           28.657 (  0.4963) /_  124.3
------------
16    (130)    1           26.468 (  0.4584) /_    5.5
16    (131)    2           26.468 (  0.4584) /_ -114.5
16    (132)    3           26.468 (  0.4584) /_  125.5

ELEMENT = "Line.L16_17"
16    (130)    1           26.468 (  0.4584) /_    5.5
16    (131)    2           26.468 (  0.4584) /_ -114.5
16    (132)    3           26.468 (  0.4584) /_  125.5
------------
17    (133)    1           26.063 (  0.4514) /_    5.8
17    (134)    2           26.063 (  0.4514) /_ -114.2
17    (135)    3           26.063 (  0.4514) /_  125.8

ELEMENT = "Line.L17_18"
17    (133)    1           26.063 (  0.4514) /_    5.8
17    (134)    2           26.063 (  0.4514) /_ -114.2
17    (135)    3           26.063 (  0.4514) /_  125.8
------------
18    (136)    1           25.406 (    0.44) /_    6.2
18    (137)    2           25.406 (    0.44) /_ -113.8
18    (138)    3           25.406 (    0.44) /_  126.2

ELEMENT = "Line.L18_19"
18    (136)    1           25.406 (    0.44) /_    6.2
18    (137)    2           25.406 (    0.44) /_ -113.8
18    (138)    3           25.406 (    0.44) /_  126.2
------------
19    (139)    1           25.399 (  0.4399) /_    6.2
19    (140)    2           25.399 (  0.4399) /_ -113.8
19    (141)    3           25.399 (  0.4399) /_  126.2

ELEMENT = "Line.L19_20"
19    (139)    1           25.399 (  0.4399) /_    6.2
19    (140)    2           25.399 (  0.4399) /_ -113.8
19    (141)    3           25.399 (  0.4399) /_  126.2
------------
20    (142)    1           25.037 (  0.4337) /_    6.4
20    (143)    2           25.037 (  0.4337) /_ -113.6
20    (144)    3           25.037 (  0.4337) /_  126.4

ELEMENT = "Line.L20_21"
20    (142)    1           25.037 (  0.4337) /_    6.4
20    (143)    2           25.037 (  0.4337) /_ -113.6
20    (144)    3           25.037 (  0.4337) /_  126.4
------------
21    (145)    1           24.804 (  0.4296) /_    6.6
21    (146)    2           24.804 (  0.4296) /_ -113.4
21    (147)    3           24.804 (  0.4296) /_  126.6

ELEMENT = "Line.L21_22"
21    (145)    1           24.804 (  0.4296) /_    6.6
21    (146)    2           24.804 (  0.4296) /_ -113.4
21    (147)    3           24.804 (  0.4296) /_  126.6
------------
22    (148)    1           24.429 (  0.4231) /_    6.9
22    (149)    2           24.429 (  0.4231) /_ -113.1
22    (150)    3           24.429 (  0.4231) /_  126.9

ELEMENT = "Line.L22_23"
22    (148)    1           24.429 (  0.4231) /_    6.9
22    (149)    2           24.429 (  0.4231) /_ -113.1
22    (150)    3           24.429 (  0.4231) /_  126.9
------------
23    (151)    1           24.424 (   0.423) /_    6.9
23    (152)    2           24.424 (   0.423) /_ -113.1
23    (153)    3           24.424 (   0.423) /_  126.9

ELEMENT = "Line.L23_24"
23    (151)    1           24.424 (   0.423) /_    6.9
23    (152)    2           24.424 (   0.423) /_ -113.1
23    (153)    3           24.424 (   0.423) /_  126.9
------------
24    (154)    1           24.368 (  0.4221) /_    6.9
24    (155)    2           24.368 (  0.4221) /_ -113.1
24    (156)    3           24.368 (  0.4221) /_  126.9

ELEMENT = "Line.L24_25"
24    (154)    1           24.368 (  0.4221) /_    6.9
24    (155)    2           24.368 (  0.4221) /_ -113.1
24    (156)    3           24.368 (  0.4221) /_  126.9
------------
25    (157)    1           24.247 (    0.42) /_    7.0
25    (158)    2           24.247 (    0.42) /_ -113.0
25    (159)    3           24.247 (    0.42) /_  127.0

ELEMENT = "Line.L25_26"
25    (157)    1           24.247 (    0.42) /_    7.0
25    (158)    2           24.247 (    0.42) /_ -113.0
25    (159)    3           24.247 (    0.42) /_  127.0
------------
26    (160)    1           24.118 (  0.4177) /_    7.1
26    (161)    2           24.118 (  0.4177) /_ -112.9
26    (162)    3           24.118 (  0.4177) /_  127.1

ELEMENT = "Line.L26_27"
26    (160)    1           24.118 (  0.4177) /_    7.1
26    (161)    2           24.118 (  0.4177) /_ -112.9
26    (162)    3           24.118 (  0.4177) /_  127.1
------------
27    (163)    1           24.064 (  0.4168) /_    7.1
27    (164)    2           24.064 (  0.4168) /_ -112.9
27    (165)    3           24.064 (  0.4168) /_  127.1

ELEMENT = "Line.L27_28"
27    (163)    1           24.064 (  0.4168) /_    7.1
27    (164)    2           24.064 (  0.4168) /_ -112.9
27    (165)    3           24.064 (  0.4168) /_  127.1
------------
28    (166)    1           24.049 (  0.4165) /_    7.1
28    (167)    2           24.049 (  0.4165) /_ -112.9
28    (168)    3           24.049 (  0.4165) /_  127.1

ELEMENT = "Line.L30_31"
30    ( 25)    1           55.842 (  0.9672) /_   -1.4
30    ( 26)    2           55.842 (  0.9672) /_ -121.4
30    ( 27)    3           55.842 (  0.9672) /_  118.6
------------
31    (169)    1           55.597 (   0.963) /_   -1.3
31    (170)    2           55.597 (   0.963) /_ -121.3
31    (171)    3           55.597 (   0.963) /_  118.7

ELEMENT = "Line.L31_32"
31    (169)    1           55.597 (   0.963) /_   -1.3
31    (170)    2           55.597 (   0.963) /_ -121.3
31    (171)    3           55.597 (   0.963) /_  118.7
------------
32    (172)    1           55.554 (  0.9622) /_   -1.3
32    (173)    2           55.554 (  0.9622) /_ -121.3
32    (174)    3           55.554 (  0.9622) /_  118.7

ELEMENT = "Line.L32_33"
32    (172)    1           55.554 (  0.9622) /_   -1.3
32    (173)    2           55.554 (  0.9622) /_ -121.3
32    (174)    3           55.554 (  0.9622) /_  118.7
------------
33    (175)    1           55.338 (  0.9585) /_   -1.2
33    (176)    2           55.338 (  0.9585) /_ -121.2
33    (177)    3           55.338 (  0.9585) /_  118.8

ELEMENT = "Line.L33_34"
33    (175)    1           55.338 (  0.9585) /_   -1.2
33    (176)    2           55.338 (  0.9585) /_ -121.2
33    (177)    3           55.338 (  0.9585) /_  118.8
------------
34    (178)    1           54.822 (  0.9496) /_   -1.0
34    (179)    2           54.822 (  0.9496) /_ -121.0
34    (180)    3           54.822 (  0.9496) /_  119.0

ELEMENT = "Line.L34_35"
34    (178)    1           54.822 (  0.9496) /_   -1.0
34    (179)    2           54.822 (  0.9496) /_ -121.0
34    (180)    3           54.822 (  0.9496) /_  119.0
------------
35    (181)    1            54.14 (  0.9377) /_   -0.8
35    (182)    2            54.14 (  0.9377) /_ -120.8
35    (183)    3            54.14 (  0.9377) /_  119.2

ELEMENT = "Line.L35_36"
35    (181)    1            54.14 (  0.9377) /_   -0.8
35    (182)    2            54.14 (  0.9377) /_ -120.8
35    (183)    3            54.14 (  0.9377) /_  119.2
------------
36    (184)    1           54.011 (  0.9355) /_   -0.7
36    (185)    2           54.011 (  0.9355) /_ -120.7
36    (186)    3           54.011 (  0.9355) /_  119.3

ELEMENT = "Line.L52_53"
52    ( 55)    1           42.245 (  0.7317) /_   -1.0
52    ( 56)    2           42.245 (  0.7317) /_ -121.0
52    ( 57)    3           42.245 (  0.7317) /_  119.0
------------
53    (187)    1           42.231 (  0.7315) /_   -1.0
53    (188)    2           42.231 (  0.7315) /_ -121.0
53    (189)    3           42.231 (  0.7315) /_  119.0

ELEMENT = "Line.L57_58"
57    ( 67)    1           35.291 (  0.6113) /_   -0.9
57    ( 68)    2           35.291 (  0.6113) /_ -120.9
57    ( 69)    3           35.291 (  0.6113) /_  119.1
------------
58    (190)    1           25.888 (  0.4484) /_    2.3
58    (191)    2           25.888 (  0.4484) /_ -117.7
58    (192)    3           25.888 (  0.4484) /_  122.3

ELEMENT = "Line.L58_59"
58    (190)    1           25.888 (  0.4484) /_    2.3
58    (191)    2           25.888 (  0.4484) /_ -117.7
58    (192)    3           25.888 (  0.4484) /_  122.3
------------
59    (193)    1           21.301 (  0.3689) /_    5.0
59    (194)    2           21.301 (  0.3689) /_ -115.0
59    (195)    3           21.301 (  0.3689) /_  125.0

ELEMENT = "Line.L59_60"
59    (193)    1           21.301 (  0.3689) /_    5.0
59    (194)    2           21.301 (  0.3689) /_ -115.0
59    (195)    3           21.301 (  0.3689) /_  125.0
------------
60    (196)    1           19.537 (  0.3384) /_    6.3
60    (197)    2           19.537 (  0.3384) /_ -113.7
60    (198)    3           19.537 (  0.3384) /_  126.3

ELEMENT = "Line.L60_61"
60    (196)    1           19.537 (  0.3384) /_    6.3
60    (197)    2           19.537 (  0.3384) /_ -113.7
60    (198)    3           19.537 (  0.3384) /_  126.3
------------
61    ( 70)    1           17.355 (  0.3006) /_    8.1
61    ( 71)    2           17.355 (  0.3006) /_ -111.9
61    ( 72)    3           17.355 (  0.3006) /_  128.1

ELEMENT = "Line.L12_67"
12    (118)    1           35.831 (  0.6206) /_    1.1
12    (119)    2           35.831 (  0.6206) /_ -118.9
12    (120)    3           35.831 (  0.6206) /_  121.1
------------
67    (199)    1           35.761 (  0.6194) /_    1.2
67    (200)    2           35.761 (  0.6194) /_ -118.8
67    (201)    3           35.761 (  0.6194) /_  121.2

ELEMENT = "Line.L67_68"
67    (199)    1           35.761 (  0.6194) /_    1.2
67    (200)    2           35.761 (  0.6194) /_ -118.8
67    (201)    3           35.761 (  0.6194) /_  121.2
------------
68    (202)    1            35.76 (  0.6194) /_    1.2
68    (203)    2            35.76 (  0.6194) /_ -118.8
68    (204)    3            35.76 (  0.6194) /_  121.2

ELEMENT = "Line.L13_69"
13    (121)    1           33.164 (  0.5744) /_    2.2
13    (122)    2           33.164 (  0.5744) /_ -117.8
13    (123)    3           33.164 (  0.5744) /_  122.2
------------
69    (205)    1           32.982 (  0.5713) /_    2.3
69    (206)    2           32.982 (  0.5713) /_ -117.7
69    (207)    3           32.982 (  0.5713) /_  122.3

ELEMENT = "Line.L69_70"
69    (205)    1           32.982 (  0.5713) /_    2.3
69    (206)    2           32.982 (  0.5713) /_ -117.7
69    (207)    3           32.982 (  0.5713) /_  122.3
------------
70    (208)    1           32.982 (  0.5713) /_    2.3
70    (209)    2           32.982 (  0.5713) /_ -117.7
70    (210)    3           32.982 (  0.5713) /_  122.3

= = = = = = = = = = = = = = = = = = =  = = = = = = = = = = =  = =

Power Conversion Elements

Bus  (node ref)  Phase    Magnitude, kV (pu)    Angle

ELEMENT = "Load.L7"
7     ( 43)    1           49.672 (  0.8604) /_   -1.4
7     ( 44)    2           49.672 (  0.8604) /_ -121.4
7     ( 45)    3           49.672 (  0.8604) /_  118.6
7     (  0)    0                0 (       0) /_    0.0

ELEMENT = "Load.L8"
8     ( 46)    1           43.704 (   0.757) /_   -1.1
8     ( 47)    2           43.704 (   0.757) /_ -121.1
8     ( 48)    3           43.704 (   0.757) /_  118.9
8     (  0)    0                0 (       0) /_    0.0

ELEMENT = "Load.L9"
9     ( 49)    1           42.298 (  0.7326) /_   -1.0
9     ( 50)    2           42.298 (  0.7326) /_ -121.0
9     ( 51)    3           42.298 (  0.7326) /_  119.0
9     (  0)    0                0 (       0) /_    0.0

ELEMENT = "Load.L10"
10    ( 52)    1           41.621 (  0.7209) /_   -1.0
10    ( 53)    2           41.621 (  0.7209) /_ -121.0
10    ( 54)    3           41.621 (  0.7209) /_  119.0
10    (  0)    0                0 (       0) /_    0.0

ELEMENT = "Load.L11"
11    (115)    1           36.861 (  0.6385) /_    0.7
11    (116)    2           36.861 (  0.6385) /_ -119.3
11    (117)    3           36.861 (  0.6385) /_  120.7
11    (  0)    0                0 (       0) /_    0.0

ELEMENT = "Load.L12"
12    (118)    1           35.831 (  0.6206) /_    1.1
12    (119)    2           35.831 (  0.6206) /_ -118.9
12    (120)    3           35.831 (  0.6206) /_  121.1
12    (  0)    0                0 (       0) /_    0.0

ELEMENT = "Load.L13"
13    (121)    1           33.164 (  0.5744) /_    2.2
13    (122)    2           33.164 (  0.5744) /_ -117.8
13    (123)    3           33.164 (  0.5744) /_  122.2
13    (  0)    0                0 (       0) /_    0.0

ELEMENT = "Load.L14"
14    (124)    1           30.887 (   0.535) /_    3.2
14    (125)    2           30.887 (   0.535) /_ -116.8
14    (126)    3           30.887 (   0.535) /_  123.2
14    (  0)    0                0 (       0) /_    0.0

ELEMENT = "Load.L15"
15    (127)    1           28.657 (  0.4963) /_    4.3
15    (128)    2           28.657 (  0.4963) /_ -115.7
15    (129)    3           28.657 (  0.4963) /_  124.3
15    (  0)    0                0 (       0) /_    0.0

ELEMENT = "Load.L17"
17    (133)    1           26.063 (  0.4514) /_    5.8
17    (134)    2           26.063 (  0.4514) /_ -114.2
17    (135)    3           26.063 (  0.4514) /_  125.8
17    (  0)    0                0 (       0) /_    0.0

ELEMENT = "Load.L18"
18    (136)    1           25.406 (    0.44) /_    6.2
18    (137)    2           25.406 (    0.44) /_ -113.8
18    (138)    3           25.406 (    0.44) /_  126.2
18    (  0)    0                0 (       0) /_    0.0

ELEMENT = "Load.L19"
19    (139)    1           25.399 (  0.4399) /_    6.2
19    (140)    2           25.399 (  0.4399) /_ -113.8
19    (141)    3           25.399 (  0.4399) /_  126.2
19    (  0)    0                0 (       0) /_    0.0

ELEMENT = "Load.L21"
21    (145)    1           24.804 (  0.4296) /_    6.6
21    (146)    2           24.804 (  0.4296) /_ -113.4
21    (147)    3           24.804 (  0.4296) /_  126.6
21    (  0)    0                0 (       0) /_    0.0

ELEMENT = "Load.L22"
22    (148)    1           24.429 (  0.4231) /_    6.9
22    (149)    2           24.429 (  0.4231) /_ -113.1
22    (150)    3           24.429 (  0.4231) /_  126.9
22    (  0)    0                0 (       0) /_    0.0

ELEMENT = "Load.L23"
23    (151)    1           24.424 (   0.423) /_    6.9
23    (152)    2           24.424 (   0.423) /_ -113.1
23    (153)    3           24.424 (   0.423) /_  126.9
23    (  0)    0                0 (       0) /_    0.0

ELEMENT = "Load.L25"
25    (157)    1           24.247 (    0.42) /_    7.0
25    (158)    2           24.247 (    0.42) /_ -113.0
25    (159)    3           24.247 (    0.42) /_  127.0
25    (  0)    0                0 (       0) /_    0.0

ELEMENT = "Load.L27"
27    (163)    1           24.064 (  0.4168) /_    7.1
27    (164)    2           24.064 (  0.4168) /_ -112.9
27    (165)    3           24.064 (  0.4168) /_  127.1
27    (  0)    0                0 (       0) /_    0.0

ELEMENT = "Load.L28"
28    (166)    1           24.049 (  0.4165) /_    7.1
28    (167)    2           24.049 (  0.4165) /_ -112.9
28    (168)    3           24.049 (  0.4165) /_  127.1
28    (  0)    0                0 (       0) /_    0.0

ELEMENT = "Load.L29"
29    ( 16)    1           55.989 (  0.9698) /_   -1.3
29    ( 17)    2           55.989 (  0.9698) /_ -121.3
29    ( 18)    3           55.989 (  0.9698) /_  118.7
29    (  0)    0                0 (       0) /_    0.0

ELEMENT = "Load.L30"
30    ( 25)    1           55.842 (  0.9672) /_   -1.4
30    ( 26)    2           55.842 (  0.9672) /_ -121.4
30    ( 27)    3           55.842 (  0.9672) /_  118.6
30    (  0)    0                0 (       0) /_    0.0

ELEMENT = "Load.L34"
34    (178)    1           54.822 (  0.9496) /_   -1.0
34    (179)    2           54.822 (  0.9496) /_ -121.0
34    (180)    3           54.822 (  0.9496) /_  119.0
34    (  0)    0                0 (       0) /_    0.0

ELEMENT = "Load.L35"
35    (181)    1            54.14 (  0.9377) /_   -0.8
35    (182)    2            54.14 (  0.9377) /_ -120.8
35    (183)    3            54.14 (  0.9377) /_  119.2
35    (  0)    0                0 (       0) /_    0.0

ELEMENT = "Load.L36"
36    (184)    1           54.011 (  0.9355) /_   -0.7
36    (185)    2           54.011 (  0.9355) /_ -120.7
36    (186)    3           54.011 (  0.9355) /_  119.3
36    (  0)    0                0 (       0) /_    0.0

ELEMENT = "Load.L37"
37    ( 19)    1           55.978 (  0.9696) /_   -1.3
37    ( 20)    2           55.978 (  0.9696) /_ -121.3
37    ( 21)    3           55.978 (  0.9696) /_  118.7
37    (  0)    0                0 (       0) /_    0.0

ELEMENT = "Load.L38"
38    ( 28)    1           55.683 (  0.9645) /_   -1.4
38    ( 29)    2           55.683 (  0.9645) /_ -121.4
38    ( 30)    3           55.683 (  0.9645) /_  118.6
38    (  0)    0                0 (       0) /_    0.0

ELEMENT = "Load.L40"
40    ( 91)    1           55.375 (  0.9591) /_   -1.4
40    ( 92)    2           55.375 (  0.9591) /_ -121.4
40    ( 93)    3           55.375 (  0.9591) /_  118.6
40    (  0)    0                0 (       0) /_    0.0

ELEMENT = "Load.L41"
41    ( 94)    1           55.372 (  0.9591) /_   -1.4
41    ( 95)    2           55.372 (  0.9591) /_ -121.4
41    ( 96)    3           55.372 (  0.9591) /_  118.6
41    (  0)    0                0 (       0) /_    0.0

ELEMENT = "Load.L42"
42    ( 97)    1           54.526 (  0.9444) /_   -1.2
42    ( 98)    2           54.526 (  0.9444) /_ -121.2
42    ( 99)    3           54.526 (  0.9444) /_  118.8
42    (  0)    0                0 (       0) /_    0.0

ELEMENT = "Load.L44"
44    (103)    1           54.128 (  0.9375) /_   -1.0
44    (104)    2           54.128 (  0.9375) /_ -121.0
44    (105)    3           54.128 (  0.9375) /_  119.0
44    (  0)    0                0 (       0) /_    0.0

ELEMENT = "Load.L46"
46    (109)    1           54.011 (  0.9355) /_   -1.0
46    (110)    2           54.011 (  0.9355) /_ -121.0
46    (111)    3           54.011 (  0.9355) /_  119.0
46    (  0)    0                0 (       0) /_    0.0

ELEMENT = "Load.L47"
47    (112)    1            54.01 (  0.9355) /_   -1.0
47    (113)    2            54.01 (  0.9355) /_ -121.0
47    (114)    3            54.01 (  0.9355) /_  119.0
47    (  0)    0                0 (       0) /_    0.0

ELEMENT = "Load.L49"
49    ( 31)    1           53.927 (   0.934) /_   -2.0
49    ( 32)    2           53.927 (   0.934) /_ -122.0
49    ( 33)    3           53.927 (   0.934) /_  118.0
49    (  0)    0                0 (       0) /_    0.0

ELEMENT = "Load.L50"
50    ( 34)    1             48.2 (  0.8349) /_   -3.9
50    ( 35)    2             48.2 (  0.8349) /_ -123.9
50    ( 36)    3             48.2 (  0.8349) /_  116.1
50    (  0)    0                0 (       0) /_    0.0

ELEMENT = "Load.L51"
51    ( 37)    1           47.268 (  0.8187) /_   -4.6
51    ( 38)    2           47.268 (  0.8187) /_ -124.6
51    ( 39)    3           47.268 (  0.8187) /_  115.4
51    (  0)    0                0 (       0) /_    0.0

ELEMENT = "Load.L52"
52    ( 55)    1           42.245 (  0.7317) /_   -1.0
52    ( 56)    2           42.245 (  0.7317) /_ -121.0
52    ( 57)    3           42.245 (  0.7317) /_  119.0
52    (  0)    0                0 (       0) /_    0.0

ELEMENT = "Load.L53"
53    (187)    1           42.231 (  0.7315) /_   -1.0
53    (188)    2           42.231 (  0.7315) /_ -121.0
53    (189)    3           42.231 (  0.7315) /_  119.0
53    (  0)    0                0 (       0) /_    0.0

ELEMENT = "Load.L54"
54    ( 58)    1           40.404 (  0.6998) /_   -0.9
54    ( 59)    2           40.404 (  0.6998) /_ -120.9
54    ( 60)    3           40.404 (  0.6998) /_  119.1
54    (  0)    0                0 (       0) /_    0.0

ELEMENT = "Load.L55"
55    ( 61)    1           38.988 (  0.6753) /_   -0.9
55    ( 62)    2           38.988 (  0.6753) /_ -120.9
55    ( 63)    3           38.988 (  0.6753) /_  119.1
55    (  0)    0                0 (       0) /_    0.0

ELEMENT = "Load.L56"
56    ( 64)    1           37.093 (  0.6425) /_   -0.9
56    ( 65)    2           37.093 (  0.6425) /_ -120.9
56    ( 66)    3           37.093 (  0.6425) /_  119.1
56    (  0)    0                0 (       0) /_    0.0

ELEMENT = "Load.L60"
60    (196)    1           19.537 (  0.3384) /_    6.3
60    (197)    2           19.537 (  0.3384) /_ -113.7
60    (198)    3           19.537 (  0.3384) /_  126.3
60    (  0)    0                0 (       0) /_    0.0

ELEMENT = "Load.L62"
62    ( 73)    1           14.225 (  0.2464) /_    9.5
62    ( 74)    2           14.225 (  0.2464) /_ -110.5
62    ( 75)    3           14.225 (  0.2464) /_  129.5
62    (  0)    0                0 (       0) /_    0.0

ELEMENT = "Load.L63"
63    ( 76)    1           13.373 (  0.2316) /_   11.6
63    ( 77)    2           13.373 (  0.2316) /_ -108.4
63    ( 78)    3           13.373 (  0.2316) /_  131.6
63    (  0)    0                0 (       0) /_    0.0

ELEMENT = "Load.L65"
65    ( 82)    1           12.508 (  0.2166) /_   12.2
65    ( 83)    2           12.508 (  0.2166) /_ -107.8
65    ( 84)    3           12.508 (  0.2166) /_  132.2
65    (  0)    0                0 (       0) /_    0.0

ELEMENT = "Load.L66"
66    ( 85)    1           12.294 (  0.2129) /_   12.3
66    ( 86)    2           12.294 (  0.2129) /_ -107.7
66    ( 87)    3           12.294 (  0.2129) /_  132.3
66    (  0)    0                0 (       0) /_    0.0

ELEMENT = "Load.L67"
67    (199)    1           35.761 (  0.6194) /_    1.2
67    (200)    2           35.761 (  0.6194) /_ -118.8
67    (201)    3           35.761 (  0.6194) /_  121.2
67    (  0)    0                0 (       0) /_    0.0

ELEMENT = "Load.L68"
68    (202)    1            35.76 (  0.6194) /_    1.2
68    (203)    2            35.76 (  0.6194) /_ -118.8
68    (204)    3            35.76 (  0.6194) /_  121.2
68    (  0)    0                0 (       0) /_    0.0

ELEMENT = "Load.L69"
69    (205)    1           32.982 (  0.5713) /_    2.3
69    (206)    2           32.982 (  0.5713) /_ -117.7
69    (207)    3           32.982 (  0.5713) /_  122.3
69    (  0)    0                0 (       0) /_    0.0

ELEMENT = "Load.L70"
70    (208)    1           32.982 (  0.5713) /_    2.3
70    (209)    2           32.982 (  0.5713) /_ -117.7
70    (210)    3           32.982 (  0.5713) /_  122.3
70    (  0)    0                0 (       0) /_    0.0

